#======================================================================

# CRYSTAL DATA

#----------------------------------------------------------------------

data_VESTA_phase_1


_chemical_name_common                  'MnH11Ppgal.nH2O'
_cell_length_a                         21.8647(11)
_cell_length_b                         17.6941(6)
_cell_length_c                         18.9972(9)
_cell_angle_alpha                      90
_cell_angle_beta                       90
_cell_angle_gamma                      90
_space_group_name_H-M_alt              'P b c n'
_space_group_IT_number                 60

loop_
_space_group_symop_operation_xyz
   'x, y, z'
   '-x, -y, -z'
   '-x+1/2, -y+1/2, z+1/2'
   'x+1/2, y+1/2, -z+1/2'
   '-x, y, -z+1/2'
   'x, -y, z+1/2'
   'x+1/2, -y+1/2, -z'
   '-x+1/2, y+1/2, z'

loop_
   _atom_site_label
   _atom_site_occupancy
   _atom_site_fract_x
   _atom_site_fract_y
   _atom_site_fract_z
   _atom_site_adp_type
   _atom_site_U_iso_or_equiv
   _atom_site_type_symbol
   Mn1        1.0     0.25135(2)    0.51142(3)    0.24473(2)   Uiso  0.020960 Mn
   N1         1.0     0.32126(13)   0.58416(14)   0.25188(14)  Uiso  0.022567 N
   N2         1.0     0.19978(13)   0.58053(14)   0.30422(14)  Uiso  0.021867 N
   N3         1.0     0.17863(13)   0.44464(14)   0.23088(14)  Uiso  0.021900 N
   N4         1.0     0.30002(13)   0.44798(14)   0.17807(14)  Uiso  0.022633 N
   C1         1.0     0.39669(17)   0.5195(2)     0.1756(2)    Uiso  0.028200 C
   C2         1.0     0.37805(16)   0.57760(17)   0.22058(17)  Uiso  0.023200 C
   C3         1.0     0.41533(16)   0.63983(18)   0.24038(18)  Uiso  0.025633 C
   H3         1.0     0.455759      0.647791      0.227110     Uiso  0.031000 H
   C4         1.0     0.38115(16)   0.68563(18)   0.28224(17)  Uiso  0.025133 C
   H4         1.0     0.393742      0.730796      0.302647     Uiso  0.030000 H
   C5         1.0     0.32256(16)   0.65158(16)   0.28899(16)  Uiso  0.021967 C
   C6         1.0     0.27443(16)   0.68316(16)   0.32629(16)  Uiso  0.022767 C
   C7         1.0     0.21806(16)   0.64771(16)   0.33478(16)  Uiso  0.022567 C
   C8         1.0     0.17127(16)   0.67429(18)   0.38119(18)  Uiso  0.026067 C
   H8         1.0     0.172395      0.718494      0.407644     Uiso  0.031000 H
   C9         1.0     0.12535(17)   0.62373(18)   0.37963(18)  Uiso  0.026567 C
   H9         1.0     0.089300      0.625859      0.405541     Uiso  0.032000 H
   C10        1.0     0.14237(16)   0.56615(16)   0.33068(17)  Uiso  0.023133 C
   C11        1.0     0.10562(16)   0.50404(17)   0.31436(17)  Uiso  0.023000 C
   C12        1.0     0.12359(16)   0.44868(17)   0.26643(16)  Uiso  0.022067 C
   C13        1.0     0.08604(16)   0.38595(18)   0.24683(18)  Uiso  0.025233 C
   H13        1.0     0.046780      0.375852      0.263152     Uiso  0.030000 H
   C14        1.0     0.11813(16)   0.34403(18)   0.20022(18)  Uiso  0.026133 C
   H14        1.0     0.104833      0.300025      0.178263     Uiso  0.031000 H
   C15        1.0     0.17604(16)   0.37954(17)   0.19086(16)  Uiso  0.022933 C
   C16        1.0     0.22333(16)   0.35020(17)   0.15042(16)  Uiso  0.023933 C
   C17        1.0     0.28056(16)   0.38323(17)   0.14395(17)  Uiso  0.025167 C
   C18        1.0     0.32888(17)   0.3555(2)     0.0997(2)    Uiso  0.032133 C
   H18        1.0     0.327378      0.312881      0.071088     Uiso  0.039000 H
   C19        1.0     0.37661(18)   0.4025(2)     0.1074(2)    Uiso  0.033333 C
   H19        1.0     0.414270      0.398228      0.084960     Uiso  0.040000 H
   C20        1.0     0.35929(17)   0.4602(2)     0.1561(2)    Uiso  0.027433 C
   C21        1.0     0.46032(18)   0.5209(2)     0.1479(2)    Uiso  0.033133 C
   C22        1.0     0.5005(2)     0.4637(4)     0.1651(4)    Uiso  0.047667 C
   H22        1.0     0.486217      0.423377      0.191874     Uiso  0.057000 H
   C23        1.0     0.5607(2)     0.4637(4)     0.1445(4)    Uiso  0.055333 C
   C24        1.0     0.5821(2)     0.5226(4)     0.1039(4)    Uiso  0.052667 C
   C25        1.0     0.5417(2)     0.5801(4)     0.0845(2)    Uiso  0.049867 C
   C26        1.0     0.4810(2)     0.5797(4)     0.1060(2)    Uiso  0.038600 C
   H26        1.0     0.454624      0.618327      0.092535     Uiso  0.046000 H
   O1         1.0     0.59826(17)   0.4061(2)     0.1636(4)    Uiso  0.095833 O
   H1         1.0     0.622671      0.421127      0.193246     Uiso  0.144000 H
   O2         1.0     0.64019(16)   0.5293(4)     0.0794(2)    Uiso  0.069667 O
   H2         1.0     0.662910      0.501759      0.102242     Uiso  0.105000 H
   O3         1.0     0.56461(17)   0.6378(4)     0.0438(2)    Uiso  0.068333 O
   H3A        1.0     0.536876      0.656596      0.020618     Uiso  0.102000 H
   C27        1.0     0.28081(16)   0.75979(17)   0.35824(17)  Uiso  0.024367 C
   C28        1.0     0.31928(17)   0.77304(18)   0.41494(17)  Uiso  0.026367 C
   H28        1.0     0.343067      0.734079      0.433097     Uiso  0.032000 H
   C29        1.0     0.32214(16)   0.84513(18)   0.44465(17)  Uiso  0.025767 C
   C30        1.0     0.28736(16)   0.90350(17)   0.41678(18)  Uiso  0.025800 C
   C31        1.0     0.24868(16)   0.89090(17)   0.36022(18)  Uiso  0.024567 C
   C32        1.0     0.24523(16)   0.81829(17)   0.33133(17)  Uiso  0.025067 C
   H32        1.0     0.218934      0.809028      0.293827     Uiso  0.030000 H
   O4         1.0     0.35963(14)   0.85687(16)   0.50073(13)  Uiso  0.032833 O
   H4A        1.0     0.378520      0.817948      0.509445     Uiso  0.049000 H
   O5         1.0     0.29237(13)   0.97357(13)   0.44694(14)  Uiso  0.031567 O
   H5         1.0     0.270695      1.003616      0.425547     Uiso  0.047000 H
   O6         1.0     0.21604(11)   0.94968(12)   0.33531(13)  Uiso  0.026900 O
   C33        1.0     0.04424(16)   0.49924(18)   0.34826(18)  Uiso  0.025367 C
   C34        1.0     0.00197(17)   0.5561(2)     0.3356(2)    Uiso  0.027933 C
   H34        1.0     0.012097      0.596110      0.306080     Uiso  0.034000 H
   C35        1.0    -0.05529(18)   0.55335(18)   0.3667(2)    Uiso  0.029267 C
   C36        1.0    -0.06955(18)   0.4958(2)     0.4119(2)    Uiso  0.029667 C
   C37        1.0    -0.0275(2)     0.4394(2)     0.42569(18)  Uiso  0.030633 C
   C38        1.0     0.02953(17)   0.44004(18)   0.39352(18)  Uiso  0.026333 C
   H38        1.0     0.057477      0.401496      0.402069     Uiso  0.032000 H
   O7         1.0    -0.09845(14)   0.60732(16)   0.35344(18)  Uiso  0.040200 O
   H7         1.0    -0.099091      0.616679      0.311167     Uiso  0.060000 H
   O8         1.0    -0.12585(14)   0.49587(16)   0.44387(16)  Uiso  0.038067 O
   H8A        1.0    -0.129335      0.457934      0.468329     Uiso  0.057000 H
   O9         1.0    -0.04730(14)   0.38487(16)   0.47085(16)  Uiso  0.039167 O
   H9A        1.0    -0.021476      0.351391      0.473556     Uiso  0.059000 H
   C39        1.0     0.21463(16)   0.27440(17)   0.11743(17)  Uiso  0.025667 C
   C40        1.0     0.17037(18)   0.2623(2)     0.06611(18)  Uiso  0.028733 C
   H40        1.0     0.146189      0.302204      0.050566     Uiso  0.035000 H
   C41        1.0     0.1624(2)     0.1911(2)     0.03834(18)  Uiso  0.032700 C
   C42        1.0     0.1981(2)     0.1315(2)     0.0612(2)    Uiso  0.033700 C
   C43        1.0     0.24260(17)   0.14334(18)   0.1116(2)    Uiso  0.029233 C
   C44        1.0     0.25119(17)   0.2149(2)     0.1401(2)    Uiso  0.028033 C
   H44        1.0     0.281151      0.222950      0.174016     Uiso  0.034000 H
   O10        1.0     0.11945(16)   0.1790(2)    -0.01254(16)  Uiso  0.048533 O
   H10        1.0     0.124334      0.136889     -0.029654     Uiso  0.073000 H
   O11        1.0     0.18832(16)   0.06107(16)   0.03369(17)  Uiso  0.044133 O
   H11        1.0     0.212645      0.031111      0.051026     Uiso  0.066000 H
   O12        1.0     0.27724(13)   0.08239(14)   0.13406(16)  Uiso  0.034567 O
   H12        1.0     0.268095      0.071913      0.174766     Uiso  0.052000 H

loop_
   _atom_site_aniso_label
   _atom_site_aniso_U_11
   _atom_site_aniso_U_22
   _atom_site_aniso_U_33
   _atom_site_aniso_U_12
   _atom_site_aniso_U_13
   _atom_site_aniso_U_23
   Mn1	 0.01290  0.01798  0.03200  0.00044  0.00220 -0.00566
   N1	 0.01620  0.01920  0.03230  0.00060  0.00170 -0.00430
   N2	 0.01430  0.01900  0.03230 -0.00030  0.00090 -0.00350
   N3	 0.01220  0.02150  0.03200  0.00100  0.00010 -0.00500
   N4	 0.01600  0.01920  0.03270  0.00140  0.00110 -0.00430
   C1	 0.01380  0.02980  0.04100  0.00140  0.00170 -0.00670
   C2	 0.01180  0.02490  0.03290  0.00040 -0.00070 -0.00350
   C3	 0.01380  0.02650  0.03660 -0.00360  0.00030 -0.00560
   H3	 0.00000  0.00000  0.00000  0.00000  0.00000  0.00000
   C4	 0.01700  0.02380  0.03460 -0.00300 -0.00060 -0.00450
   H4	 0.00000  0.00000  0.00000  0.00000  0.00000  0.00000
   C5	 0.01560  0.01970  0.03060 -0.00110 -0.00120 -0.00450
   C6	 0.01980  0.01870  0.02980 -0.00190  0.00100 -0.00280
   C7	 0.01990  0.01770  0.03010  0.00080  0.00180 -0.00570
   C8	 0.02020  0.02370  0.03430  0.00070  0.00530 -0.00750
   H8	 0.00000  0.00000  0.00000  0.00000  0.00000  0.00000
   C9	 0.01750  0.02630  0.03590  0.00110  0.00580 -0.00670
   H9	 0.00000  0.00000  0.00000  0.00000  0.00000  0.00000
   C10	 0.01610  0.02010  0.03320  0.00220  0.00310 -0.00270
   C11	 0.01840  0.01960  0.03100  0.00080  0.00160 -0.00340
   C12	 0.01360  0.02140  0.03120  0.00120  0.00080 -0.00240
   C13	 0.01290  0.02570  0.03710 -0.00140  0.00000 -0.00450
   H13	 0.00000  0.00000  0.00000  0.00000  0.00000  0.00000
   C14	 0.01840  0.02580  0.03420 -0.00390  0.00020 -0.00520
   H14	 0.00000  0.00000  0.00000  0.00000  0.00000  0.00000
   C15	 0.01940  0.02050  0.02890 -0.00130 -0.00050 -0.00400
   C16	 0.02120  0.02060  0.03000  0.00210  0.00030 -0.00500
   C17	 0.02110  0.02040  0.03400  0.00020  0.00230 -0.00640
   C18	 0.02500  0.02740  0.04400 -0.00030  0.00550 -0.01420
   H18	 0.00000  0.00000  0.00000  0.00000  0.00000  0.00000
   C19	 0.01800  0.03200  0.05000  0.00040  0.00770 -0.01400
   H19	 0.00000  0.00000  0.00000  0.00000  0.00000  0.00000
   C20	 0.01810  0.02630  0.03790  0.00080  0.00330 -0.00660
   C21	 0.01400  0.03540  0.05000  0.00040  0.00450 -0.01470
   C22	 0.01800  0.03600  0.08900  0.00300  0.00300 -0.01200
   H22	 0.00000  0.00000  0.00000  0.00000  0.00000  0.00000
   C23	 0.01700  0.04300  0.10600  0.00600 -0.00100 -0.03200
   C24	 0.01600  0.08900  0.05300  0.00400  0.00550 -0.03100
   C25	 0.02800  0.08900  0.03260 -0.00900  0.00700 -0.01000
   C26	 0.02300  0.05700  0.03580  0.00180  0.00430 -0.00820
   H26	 0.00000  0.00000  0.00000  0.00000  0.00000  0.00000
   O1	 0.02000  0.04250  0.22500  0.01030 -0.01600 -0.03800
   H1	 0.00000  0.00000  0.00000  0.00000  0.00000  0.00000
   O2	 0.02400  0.13300  0.05200  0.01000  0.00920 -0.00600
   H2	 0.00000  0.00000  0.00000  0.00000  0.00000  0.00000
   O3	 0.03900  0.11900  0.04700 -0.00600  0.01030  0.02400
   H3A	 0.00000  0.00000  0.00000  0.00000  0.00000  0.00000
   C27	 0.02080  0.02130  0.03100 -0.00210  0.00290 -0.00750
   C28	 0.02400  0.02420  0.03090 -0.00150  0.00080 -0.00340
   H28	 0.00000  0.00000  0.00000  0.00000  0.00000  0.00000
   C29	 0.02250  0.02740  0.02740 -0.00560  0.00100 -0.00420
   C30	 0.02180  0.02090  0.03470 -0.00520  0.00600 -0.00780
   C31	 0.01640  0.02190  0.03540 -0.00340  0.00590 -0.00550
   C32	 0.01950  0.02240  0.03330 -0.00270  0.00260 -0.00860
   H32	 0.00000  0.00000  0.00000  0.00000  0.00000  0.00000
   O4	 0.03310  0.03130  0.03410 -0.00090 -0.00720 -0.00480
   H4A	 0.00000  0.00000  0.00000  0.00000  0.00000  0.00000
   O5	 0.03450  0.02040  0.03980 -0.00350 -0.00290 -0.00740
   H5	 0.00000  0.00000  0.00000  0.00000  0.00000  0.00000
   O6	 0.01960  0.01980  0.04130 -0.00140  0.00390 -0.00340
   C33	 0.01820  0.02260  0.03530  0.00040  0.00400 -0.00560
   C34	 0.02000  0.02360  0.04020  0.00010  0.00320 -0.00230
   H34	 0.00000  0.00000  0.00000  0.00000  0.00000  0.00000
   C35	 0.02100  0.02300  0.04380  0.00350  0.00210 -0.00690
   C36	 0.02600  0.02850  0.03450 -0.00230  0.00660 -0.00810
   C37	 0.03300  0.02860  0.03030 -0.00460  0.00590 -0.00400
   C38	 0.02200  0.02320  0.03380  0.00000  0.00370 -0.00250
   H38	 0.00000  0.00000  0.00000  0.00000  0.00000  0.00000
   O7	 0.02700  0.03190  0.06170  0.01010 -0.00070 -0.00450
   H7	 0.00000  0.00000  0.00000  0.00000  0.00000  0.00000
   O8	 0.02890  0.03710  0.04820  0.00130  0.01670 -0.00370
   H8A	 0.00000  0.00000  0.00000  0.00000  0.00000  0.00000
   O9	 0.03590  0.03730  0.04430 -0.00190  0.01200  0.00670
   H9A	 0.00000  0.00000  0.00000  0.00000  0.00000  0.00000
   C39	 0.02120  0.02300  0.03280 -0.00230  0.00380 -0.00860
   C40	 0.02800  0.02860  0.02960 -0.00570  0.00320 -0.00550
   H40	 0.00000  0.00000  0.00000  0.00000  0.00000  0.00000
   C41	 0.03300  0.03620  0.02890 -0.01170  0.00660 -0.00870
   C42	 0.03200  0.03260  0.03650 -0.01540  0.01520 -0.01480
   C43	 0.02300  0.02160  0.04310 -0.00040  0.01300 -0.00970
   C44	 0.02060  0.02570  0.03780  0.00020  0.00540 -0.00950
   H44	 0.00000  0.00000  0.00000  0.00000  0.00000  0.00000
   O10	 0.05200  0.06050  0.03310 -0.02160 -0.00150 -0.01140
   H10	 0.00000  0.00000  0.00000  0.00000  0.00000  0.00000
   O11	 0.04600  0.03680  0.04960 -0.01670  0.01230 -0.02170
   H11	 0.00000  0.00000  0.00000  0.00000  0.00000  0.00000
   O12	 0.02690  0.02230  0.05450  0.00170  0.01170 -0.00650
   H12	 0.00000  0.00000  0.00000  0.00000  0.00000  0.00000
